/*--------------------------------*- C++ -*----------------------------------*\
| =========                 |                                                 |
| \\      /  F ield         | OpenFOAM: The Open Source CFD Toolbox           |
|  \\    /   O peration     | Version:  v2012                                 |
|   \\  /    A nd           | Website:  www.openfoam.com                      |
|    \\/     M anipulation  |                                                 |
\*---------------------------------------------------------------------------*/
FoamFile
{
    version     2.0;
    format      ascii;
    class       extendedFeatureEdgeMesh;
    location    "constant/extendedFeatureEdgeMesh";
    object      body1.extendedFeatureEdgeMesh;
}
// * * * * * * * * * * * * * * * * * * * * * * * * * * * * * * * * * * * * * //

// points

147
(
(6.1232343e-17 -1.4997601e-32 1)
(-0.0024050639 0.001285534 0.9999963)
(1 -2.449294e-16 -2.449294e-16)
(0.9989931 0.04486483 0)
(0.9959743 0.089639314 0)
(-0.72279489 0.69106263 0)
(-0.75307149 0.65793872 0)
(-0.7818315 0.6234898 0)
(0.04486483 -0.9989931 0)
(0.089639314 -0.9959743 0)
(0.1342333 -0.99094981 0)
(-0.809017 0.5877853 0)
(-0.83457333 0.550897 0)
(0.1785569 -0.98392957 0)
(0.2225209 -0.9749279 0)
(-0.8584488 0.51289928 0)
(-0.88059551 0.4738687 0)
(0.26603681 -0.96396291 0)
(0.309017 -0.95105648 0)
(-0.90096891 0.4338837 0)
(-0.91952783 0.39302501 0)
(0.3513748 -0.93623489 0)
(0.39302501 -0.91952783 0)
(0.9959743 -0.089639314 0)
(0.9989931 -0.04486483 0)
(-0.93623489 0.3513748 0)
(-0.95105648 0.309017 0)
(0.4338837 -0.90096891 0)
(0.4738687 -0.88059551 0)
(-0.96396291 0.26603681 0)
(-0.9749279 0.2225209 0)
(0.51289928 -0.8584488 0)
(0.550897 -0.83457333 0)
(-0.98392957 0.1785569 0)
(-0.99094981 0.1342333 0)
(0.5877853 -0.809017 0)
(0.6234898 -0.7818315 0)
(-0.9959743 0.089639314 0)
(-0.9989931 0.04486483 0)
(0.65793872 -0.75307149 0)
(0.69106263 -0.72279489 0)
(-1 1.224647e-16 0)
(-0.9989931 -0.04486483 0)
(0.72279489 -0.69106263 0)
(0.75307149 -0.65793872 0)
(-0.9959743 -0.089639314 0)
(-0.99094981 -0.1342333 0)
(0.7818315 -0.6234898 0)
(0.809017 -0.5877853 0)
(0.99094981 0.1342333 0)
(0.98392957 0.1785569 0)
(0.9749279 0.2225209 0)
(0.96396291 0.26603681 0)
(0.95105648 0.309017 0)
(0.93623489 0.3513748 0)
(0.91952783 0.39302501 0)
(0.90096891 0.4338837 0)
(0.88059551 0.4738687 0)
(0.8584488 0.51289928 0)
(-0.98392957 -0.1785569 0)
(-0.9749279 -0.2225209 0)
(0.83457333 -0.550897 0)
(0.8584488 -0.51289928 0)
(0.83457333 0.550897 0)
(0.809017 0.5877853 0)
(0.7818315 0.6234898 0)
(0.75307149 0.65793872 0)
(0.88059551 -0.4738687 0)
(0.90096891 -0.4338837 0)
(0.72279489 0.69106263 0)
(0.69106263 0.72279489 0)
(-0.96396291 -0.26603681 0)
(-0.95105648 -0.309017 0)
(0.65793872 0.75307149 0)
(0.6234898 0.7818315 0)
(0.91952783 -0.39302501 0)
(0.93623489 -0.3513748 0)
(0.5877853 0.809017 0)
(0.550897 0.83457333 0)
(-0.93623489 -0.3513748 0)
(-0.91952783 -0.39302501 0)
(0.51289928 0.8584488 0)
(0.4738687 0.88059551 0)
(0.95105648 -0.309017 0)
(0.96396291 -0.26603681 0)
(-0.90096891 -0.4338837 0)
(-0.88059551 -0.4738687 0)
(0.4338837 0.90096891 0)
(0.39302501 0.91952783 0)
(0.9749279 -0.2225209 0)
(0.98392957 -0.1785569 0)
(0.3513748 0.93623489 0)
(0.309017 0.95105648 0)
(-0.8584488 -0.51289928 0)
(-0.83457333 -0.550897 0)
(0.26603681 0.96396291 0)
(0.2225209 0.9749279 0)
(0.99094981 -0.1342333 0)
(-0.809017 -0.5877853 0)
(-0.7818315 -0.6234898 0)
(0.1785569 0.98392957 0)
(0.1342333 0.99094981 0)
(0.089639314 0.9959743 0)
(0.04486483 0.9989931 0)
(-0.75307149 -0.65793872 0)
(-0.72279489 -0.69106263 0)
(6.1232343e-17 1 0)
(-0.69106263 -0.72279489 0)
(-0.65793872 -0.75307149 0)
(-0.04486483 0.9989931 0)
(-0.089639314 0.9959743 0)
(-0.6234898 -0.7818315 0)
(-0.5877853 -0.809017 0)
(-0.1342333 0.99094981 0)
(-0.1785569 0.98392957 0)
(-0.550897 -0.83457333 0)
(-0.51289928 -0.8584488 0)
(-0.2225209 0.9749279 0)
(-0.26603681 0.96396291 0)
(-0.01007776 0.0041743461 0.99994051)
(-0.03022849 0.01252105 0.99946457)
(-0.4738687 -0.88059551 0)
(-0.4338837 -0.90096891 0)
(-0.02181489 -1.670396e-17 0.999762)
(-0.043619391 -3.3399962e-17 0.99904817)
(-0.0040856772 -0.0002007164 0.9999916)
(-0.309017 0.95105648 0)
(-0.3513748 0.93623489 0)
(-0.39302501 -0.91952783 0)
(-0.3513748 -0.93623489 0)
(-0.39302501 0.91952783 0)
(-0.4338837 0.90096891 0)
(-0.309017 -0.95105648 0)
(-0.26603681 -0.96396291 0)
(-0.4738687 0.88059551 0)
(-0.51289928 0.8584488 0)
(-0.2225209 -0.9749279 0)
(-0.1785569 -0.98392957 0)
(-0.550897 0.83457333 0)
(-0.5877853 0.809017 0)
(-0.1342333 -0.99094981 0)
(-0.089639314 -0.9959743 0)
(-0.6234898 0.7818315 0)
(-0.65793872 0.75307149 0)
(-0.04486483 -0.9989931 0)
(-1.83697e-16 -1 0)
(-0.69106263 0.72279489 0)
)

// edges

147
(
(2 3)
(3 4)
(5 6)
(6 7)
(8 9)
(9 10)
(7 11)
(11 12)
(10 13)
(13 14)
(12 15)
(15 16)
(14 17)
(17 18)
(16 19)
(19 20)
(18 21)
(21 22)
(23 24)
(24 2)
(20 25)
(25 26)
(22 27)
(27 28)
(26 29)
(29 30)
(28 31)
(31 32)
(33 34)
(30 33)
(32 35)
(35 36)
(34 37)
(37 38)
(36 39)
(39 40)
(38 41)
(41 42)
(40 43)
(43 44)
(42 45)
(45 46)
(44 47)
(47 48)
(4 49)
(49 50)
(50 51)
(51 52)
(52 53)
(53 54)
(54 55)
(55 56)
(56 57)
(57 58)
(46 59)
(59 60)
(48 61)
(61 62)
(58 63)
(63 64)
(64 65)
(65 66)
(62 67)
(67 68)
(66 69)
(69 70)
(60 71)
(71 72)
(70 73)
(73 74)
(68 75)
(75 76)
(74 77)
(77 78)
(72 79)
(79 80)
(78 81)
(81 82)
(76 83)
(83 84)
(80 85)
(85 86)
(82 87)
(87 88)
(84 89)
(89 90)
(88 91)
(91 92)
(86 93)
(93 94)
(92 95)
(95 96)
(90 97)
(97 23)
(94 98)
(98 99)
(96 100)
(100 101)
(101 102)
(102 103)
(99 104)
(104 105)
(103 106)
(105 107)
(107 108)
(106 109)
(109 110)
(108 111)
(111 112)
(110 113)
(113 114)
(112 115)
(115 116)
(114 117)
(117 118)
(119 120)
(116 121)
(121 122)
(123 124)
(125 123)
(118 126)
(126 127)
(122 128)
(128 129)
(127 130)
(130 131)
(129 132)
(132 133)
(131 134)
(134 135)
(133 136)
(136 137)
(135 138)
(138 139)
(137 140)
(140 141)
(139 142)
(142 143)
(141 144)
(144 145)
(143 146)
(146 5)
(145 8)
(124 125)
(0 0)
(1 0)
(0 1)
)

// concaveStart mixedStart nonFeatureStart
0 0 1
// internalStart flatStart openStart multipleStart
143 144 144 145
// normals

287
(
(0 -0.0040746337 0.9999917)
(-0.00055630505 0.0018338931 0.99999816)
(-0.0018338931 -0.00055630505 0.99999816)
(0.99948168 0.022431365 0.023091161)
(1.2643688e-14 5.7430362e-15 -1)
(0.99552633 0.067120625 0.066499308)
(-0 -0 -1)
(-0.73731094 0.67393208 0.046777534)
(0 0 -1)
(-0.76698004 0.64032072 0.041605129)
(0 0 -1)
(0.06718055 -0.99641513 0.051416572)
(-0 0 -1)
(0.11187053 -0.99288682 0.040752239)
(-0 0 -1)
(-0.79477033 0.60514032 0.046317534)
(0 0 -1)
(-0.82128346 0.56898765 0.041791558)
(0 0 -1)
(0.15623388 -0.98641271 0.050802962)
(-0 0 -1)
(0.20042261 -0.97886026 0.040784427)
(-0 0 -1)
(-0.84583351 0.53147072 0.045875329)
(0 0 -1)
(-0.868974 0.49307254 0.041995941)
(0 0 -1)
(0.24403098 -0.96846685 0.050207993)
(-0 0 -1)
(0.28736096 -0.95695153 0.040834432)
(-0 0 -1)
(-0.89008543 0.45352181 0.045452022)
(0 0 -1)
(-0.90966554 0.41319022 0.042219053)
(0 0 -1)
(0.32987112 -0.94272049 0.04962986)
(-0 0 -1)
(0.37198143 -0.92733854 0.040902908)
(-0 0 -1)
(0.99552633 -0.067120625 0.066499308)
(-0 0 -1)
(0.99948168 -0.022431365 0.023091161)
(-1.2888661e-14 -5.1700138e-15 -1)
(-0.9271731 0.37191507 0.045046811)
(0 0 -1)
(-0.94303242 0.32998027 0.042460407)
(0 0 -1)
(0.41306075 -0.9093805 0.049070508)
(-0 0 -1)
(0.45360945 -0.89025744 0.040989656)
(-0 0 -1)
(-0.95679472 0.28731388 0.04466093)
(0 0 -1)
(-0.96880455 0.24411607 0.042720995)
(0 0 -1)
(0.49292646 -0.86871655 0.048529072)
(-0 0 -1)
(0.53158142 -0.8460097 0.041094664)
(-0 0 -1)
(-0.98677469 0.15629121 0.042997392)
(0 0 -1)
(-0.97871401 0.20039266 0.044290601)
(0 0 -1)
(0.56882859 -0.82105388 0.048005785)
(-0 0 -1)
(0.60527567 -0.7949481 0.04121753)
(-0 0 -1)
(-0.99275251 0.1118554 0.043941082)
(0 0 -1)
(-0.99679932 0.067206453 0.043294482)
(0 0 -1)
(0.6401522 -0.76677819 0.047501252)
(-0 0 -1)
(0.67409333 -0.73748735 0.041359222)
(-0 0 -1)
(-0.9987972 0.022416003 0.043608176)
(0 0 -1)
(-0.9987972 -0.022416003 0.043608176)
(0 0 -1)
(0.70632487 -0.70632487 0.047014399)
(-0 0 -1)
(0.73748247 -0.67408887 0.041518782)
(-0 0 -1)
(-0.99679932 -0.067206453 0.043294482)
(0 0 -1)
(-0.99275251 -0.1118554 0.043941082)
(0 0 -1)
(0.76681277 -0.64018107 0.046544405)
(-0 0 -1)
(0.79493233 -0.60526366 0.041695272)
(-0 0 -1)
(0.992787 0.11185929 0.043144677)
(-0 -0 -1)
(0.98672658 0.15628359 0.044114666)
(-0 -0 -1)
(0.9787753 0.20040521 0.0428564)
(-0 -0 -1)
(0.96873042 0.24409739 0.044472857)
(-0 -0 -1)
(0.95688142 0.28733991 0.04258795)
(-0 -0 -1)
(0.94293382 0.32994576 0.044850939)
(-0 -0 -1)
(0.92728307 0.37195918 0.042337583)
(-0 -0 -1)
(0.90954484 0.4131354 0.045247324)
(-0 -0 -1)
(0.89021607 0.45358837 0.042106231)
(-0 -0 -1)
(0.8688341 0.49299316 0.045662403)
(-0 -0 -1)
(-0.98677469 -0.15629121 0.042997392)
(0 0 -1)
(-0.97871401 -0.20039266 0.044290601)
(0 0 -1)
(0.82112786 -0.56887985 0.046095023)
(-0 0 -1)
(0.84598166 -0.5315638 0.041892072)
(-0 0 -1)
(0.84598166 0.5315638 0.041892072)
(-0 -0 -1)
(0.82112786 0.56887985 0.046095023)
(-0 -0 -1)
(0.79493233 0.60526366 0.041695272)
(-0 -0 -1)
(0.76681277 0.64018107 0.046544405)
(-0 -0 -1)
(0.8688341 -0.49299316 0.045662403)
(-0 0 -1)
(0.89021607 -0.45358837 0.042106231)
(-0 0 -1)
(0.73748247 0.67408887 0.041518782)
(-0 -0 -1)
(0.70632487 0.70632487 0.047014399)
(-0.96880455 -0.24411607 0.042720995)
(0 0 -1)
(-0.95679472 -0.28731388 0.04466093)
(0 0 -1)
(0.67409333 0.73748735 0.041359222)
(0 0 -1)
(0.6401522 0.76677819 0.047501252)
(0.90954484 -0.4131354 0.045247324)
(-0 0 -1)
(0.92728307 -0.37195918 0.042337583)
(-0 0 -1)
(0.60527567 0.7949481 0.04121753)
(0 0 -1)
(0.56882859 0.82105388 0.048005785)
(0 0 -1)
(-0.94303242 -0.32998027 0.042460407)
(0 0 -1)
(-0.9271731 -0.37191507 0.045046811)
(0 0 -1)
(0.53158142 0.8460097 0.041094664)
(0 0 -1)
(0.49292646 0.86871655 0.048529072)
(0 0 -1)
(0.94293382 -0.32994576 0.044850939)
(-0 0 -1)
(0.95688142 -0.28733991 0.04258795)
(-0 0 -1)
(-0.90966554 -0.41319022 0.042219053)
(0 0 -1)
(-0.89008543 -0.45352181 0.045452022)
(0 0 -1)
(0.45360945 0.89025744 0.040989656)
(0 0 -1)
(0.41306075 0.9093805 0.049070508)
(0 0 -1)
(0.96873042 -0.24409739 0.044472857)
(-0 0 -1)
(0.9787753 -0.20040521 0.0428564)
(-0 0 -1)
(0.37198143 0.92733854 0.040902908)
(0 0 -1)
(0.32987112 0.94272049 0.04962986)
(0 0 -1)
(-0.868974 -0.49307254 0.041995941)
(0 0 -1)
(-0.84583351 -0.53147072 0.045875329)
(0 0 -1)
(0.28736096 0.95695153 0.040834432)
(0 0 -1)
(0.24403098 0.96846685 0.050207993)
(0 0 -1)
(0.98672658 -0.15628359 0.044114666)
(-0 0 -1)
(0.992787 -0.11185929 0.043144677)
(-0 0 -1)
(-0.82128346 -0.56898765 0.041791558)
(0 0 -1)
(-0.79477033 -0.60514032 0.046317534)
(0 0 -1)
(0.20042261 0.97886026 0.040784427)
(0 0 -1)
(0.15623388 0.98641271 0.050802962)
(0 0 -1)
(0.11187053 0.99288682 0.040752239)
(0 0 -1)
(0.06718055 0.99641513 0.051416572)
(0 0 -1)
(-0.76698004 -0.64032072 0.041605129)
(0 0 -1)
(-0.73731094 -0.67393208 0.046777534)
(0 0 -1)
(0.02241872 0.99891826 0.040739493)
(0 0 -1)
(-0.7064995 -0.7064995 0.041435796)
(0 0 -1)
(-0.67391693 -0.73729436 0.047254634)
(0 0 -1)
(-0.022407305 0.99840964 0.05173116)
(0 0 -1)
(-0.06721367 0.99690637 0.040743283)
(0 0 -1)
(-0.64032919 -0.76699019 0.041286564)
(0 0 -1)
(-0.60509941 -0.7947166 0.047751696)
(0 0 -1)
(-0.11181722 0.99241365 0.051108364)
(0 0 -1)
(-0.15630584 0.98686707 0.040766035)
(0 0 -1)
(-0.5690027 -0.82130519 0.041154581)
(0 0 -1)
(-0.53141077 -0.84573811 0.048266431)
(0 0 -1)
(-0.20033354 0.97842526 0.050502386)
(0 0 -1)
(-0.24413562 0.96888214 0.040806808)
(0 0 -1)
(-0.058436222 -0.084356911 0.99472062)
(0.14164751 0.39375654 0.90823552)
(-0.49309216 -0.86900857 0.041039321)
(0 0 -1)
(-0.45345017 -0.88994484 0.04879682)
(0 0 -1)
(-0.016255572 -0.86786014 0.49654259)
(-0.032719583 0.0049836477 0.99945215)
(-0.01296724 -0.0016016393 0.99991464)
(-0.28724233 0.95655645 0.049915914)
(0 0 -1)
(-0.33000222 0.94309515 0.040866534)
(0 0 -1)
(-0.41321215 -0.90971382 0.040944798)
(0 0 -1)
(-0.37183939 -0.92698444 0.049348883)
(0 0 -1)
(-0.37183939 0.92698444 0.049348883)
(0 0 -1)
(-0.41321215 0.90971382 0.040944798)
(0 0 -1)
(-0.33000222 -0.94309515 0.040866534)
(0 0 -1)
(-0.28724233 -0.95655645 0.049915914)
(0 0 -1)
(-0.45345017 0.88994484 0.04879682)
(0 0 -1)
(-0.49309216 0.86900857 0.041039321)
(0 0 -1)
(-0.24413562 -0.96888214 0.040806808)
(0 0 -1)
(-0.20033354 -0.97842526 0.050502386)
(0 0 -1)
(-0.53141077 0.84573811 0.048266431)
(0 0 -1)
(-0.5690027 0.82130519 0.041154581)
(0 0 -1)
(-0.15630584 -0.98686707 0.040766035)
(0 0 -1)
(-0.11181722 -0.99241365 0.051108364)
(0 0 -1)
(-0.60509941 0.7947166 0.047751696)
(0 0 -1)
(-0.64032919 0.76699019 0.041286564)
(0 0 -1)
(-0.06721367 -0.99690637 0.040743283)
(0 0 -1)
(-0.022407305 -0.99840964 0.05173116)
(0 0 -1)
(-0.67391693 0.73729436 0.047254634)
(0 0 -1)
(-0.7064995 0.7064995 0.041435796)
(0 0 -1)
(0.02241872 -0.99891826 0.040739493)
(-0 0 -1)
(-0.023118848 0.11452549 0.99315126)
)

// normal volume types

287
(
0
0
0
0
0
0
0
0
0
0
0
0
0
0
0
0
0
0
0
0
0
0
0
0
0
0
0
0
0
0
0
0
0
0
0
0
0
0
0
0
0
0
0
0
0
0
0
0
0
0
0
0
0
0
0
0
0
0
0
0
0
0
0
0
0
0
0
0
0
0
0
0
0
0
0
0
0
0
0
0
0
0
0
0
0
0
0
0
0
0
0
0
0
0
0
0
0
0
0
0
0
0
0
0
0
0
0
0
0
0
0
0
0
0
0
0
0
0
0
0
0
0
0
0
0
0
0
0
0
0
0
0
0
0
0
0
0
0
0
0
0
0
0
0
0
0
0
0
0
0
0
0
0
0
0
0
0
0
0
0
0
0
0
0
0
0
0
0
0
0
0
0
0
0
0
0
0
0
0
0
0
0
0
0
0
0
0
0
0
0
0
0
0
0
0
0
0
0
0
0
0
0
0
0
0
0
0
0
0
0
0
0
0
0
0
0
0
0
0
0
0
0
0
0
0
0
0
0
0
0
0
0
0
0
0
0
0
0
0
0
0
0
0
0
0
0
0
0
0
0
0
0
0
0
0
0
0
0
0
0
0
0
0
0
0
0
0
0
0
0
0
0
0
0
0
0
0
0
0
0
0
0
0
0
0
0
0
)

// normalDirections

147
(
2(1 -1)
2(1 -1)
2(1 -1)
2(1 -1)
2(1 -1)
2(1 -1)
2(1 -1)
2(1 -1)
2(1 -1)
2(1 -1)
2(1 -1)
2(1 -1)
2(1 -1)
2(1 -1)
2(1 -1)
2(1 -1)
2(1 -1)
2(1 -1)
2(1 -1)
2(1 -1)
2(1 -1)
2(1 -1)
2(1 -1)
2(1 -1)
2(1 -1)
2(1 -1)
2(1 -1)
2(1 -1)
2(1 -1)
2(1 -1)
2(1 -1)
2(1 -1)
2(1 -1)
2(1 -1)
2(1 -1)
2(1 -1)
2(1 -1)
2(1 -1)
2(1 -1)
2(1 -1)
2(1 -1)
2(1 -1)
2(1 -1)
2(1 -1)
2(1 -1)
2(1 -1)
2(1 -1)
2(1 -1)
2(1 -1)
2(1 -1)
2(1 -1)
2(1 -1)
2(1 -1)
2(1 -1)
2(1 -1)
2(1 -1)
2(1 -1)
2(1 -1)
2(1 -1)
2(1 -1)
2(1 -1)
2(1 -1)
2(1 -1)
2(1 -1)
2(1 -1)
2(1 -1)
2(1 -1)
2(1 -1)
2(1 -1)
2(1 -1)
2(1 -1)
2(1 -1)
2(1 -1)
2(1 -1)
2(1 -1)
2(1 -1)
2(1 -1)
2(1 -1)
2(1 -1)
2(1 -1)
2(1 -1)
2(1 -1)
2(1 -1)
2(1 -1)
2(1 -1)
2(1 -1)
2(1 -1)
2(1 -1)
2(1 -1)
2(1 -1)
2(1 -1)
2(1 -1)
2(1 -1)
2(1 -1)
2(1 -1)
2(1 -1)
2(1 -1)
2(1 -1)
2(1 -1)
2(1 -1)
2(1 -1)
2(1 -1)
2(1 -1)
2(1 -1)
2(1 -1)
2(1 -1)
2(1 -1)
2(1 -1)
2(1 -1)
2(1 -1)
2(1 -1)
2(1 -1)
2(1 -1)
2(1 -1)
2(1 -1)
2(1 -1)
2(1 -1)
2(1 -1)
2(1 -1)
2(1 -1)
2(1 -1)
2(1 -1)
2(1 -1)
2(1 -1)
2(1 -1)
2(1 -1)
2(1 -1)
2(1 -1)
2(1 -1)
2(1 -1)
2(1 -1)
2(1 -1)
2(1 -1)
2(1 -1)
2(1 -1)
2(1 -1)
2(1 -1)
2(1 -1)
2(1 -1)
2(1 -1)
2(1 -1)
2(1 -1)
2(1 -1)
2(1 -1)
1(-1)
3(-1 1 -1)
3(1 -1 1)
)

// edgeNormals

147
(
2(3 4)
2(5 6)
2(7 8)
2(9 10)
2(11 12)
2(13 14)
2(15 16)
2(17 18)
2(19 20)
2(21 22)
2(23 24)
2(25 26)
2(27 28)
2(29 30)
2(31 32)
2(33 34)
2(35 36)
2(37 38)
2(39 40)
2(41 42)
2(43 44)
2(45 46)
2(47 48)
2(49 50)
2(51 52)
2(53 54)
2(55 56)
2(57 58)
2(59 60)
2(61 62)
2(63 64)
2(65 66)
2(67 68)
2(69 70)
2(71 72)
2(73 74)
2(75 76)
2(77 78)
2(79 80)
2(81 82)
2(83 84)
2(85 86)
2(87 88)
2(89 90)
2(91 92)
2(93 94)
2(95 96)
2(97 98)
2(99 100)
2(101 102)
2(103 104)
2(105 106)
2(107 108)
2(109 110)
2(111 112)
2(113 114)
2(115 116)
2(117 118)
2(119 120)
2(121 122)
2(123 124)
2(125 126)
2(127 128)
2(129 130)
2(131 132)
2(133 132)
2(134 135)
2(136 137)
2(138 139)
2(140 139)
2(141 142)
2(143 144)
2(145 146)
2(147 148)
2(149 150)
2(151 152)
2(153 154)
2(155 156)
2(157 158)
2(159 160)
2(161 162)
2(163 164)
2(165 166)
2(167 168)
2(169 170)
2(171 172)
2(173 174)
2(175 176)
2(177 178)
2(179 180)
2(181 182)
2(183 184)
2(185 186)
2(187 188)
2(189 190)
2(191 192)
2(193 194)
2(195 196)
2(197 198)
2(199 200)
2(201 202)
2(203 204)
2(205 206)
2(207 208)
2(209 210)
2(211 212)
2(213 214)
2(215 216)
2(217 218)
2(219 220)
2(221 222)
2(223 224)
2(225 226)
2(227 228)
2(229 230)
2(231 232)
2(233 234)
2(235 236)
2(237 238)
2(237 239)
2(240 241)
2(242 243)
2(244 245)
2(246 247)
2(248 249)
2(250 251)
2(252 253)
2(254 255)
2(256 257)
2(258 259)
2(260 261)
2(262 263)
2(264 265)
2(266 267)
2(268 269)
2(270 271)
2(272 273)
2(274 275)
2(276 277)
2(278 279)
2(280 281)
2(282 283)
2(284 285)
2(237 286)
1(0)
3(0 1 2)
3(0 1 2)
)

// featurePointNormals
1(3(0 1 2))
// featurePointEdges
1(4(145 146 144 144))
// regionEdges
3(145 146 144)


// ************************************************************************* //
