/*--------------------------------*- C++ -*----------------------------------*\
| =========                 |                                                 |
| \\      /  F ield         | OpenFOAM: The Open Source CFD Toolbox           |
|  \\    /   O peration     | Version:  v2012                                 |
|   \\  /    A nd           | Website:  www.openfoam.com                      |
|    \\/     M anipulation  |                                                 |
\*---------------------------------------------------------------------------*/
FoamFile
{
    version     2.0;
    format      ascii;
    class       extendedFeatureEdgeMesh;
    location    "constant/extendedFeatureEdgeMesh";
    object      Semi-sphere.extendedFeatureEdgeMesh;
}
// * * * * * * * * * * * * * * * * * * * * * * * * * * * * * * * * * * * * * //

// points

129
(
(0.023489101 -1.04308e-10 0.0034999)
(0.0234669 -1.04308e-10 0.0034999)
(0.023932001 -1.04308e-10 -0.0012999)
(0.023866 -1.04308e-10 -0.0017997)
(0.0237922 -1.04308e-10 0.00220004)
(0.023866 -1.04308e-10 0.0018005)
(0.023699099 -1.04308e-10 0.00269977)
(0.0233928 -1.04308e-10 -0.0038005)
(0.023170499 -1.04308e-10 -0.0044002999)
(0.022497199 -1.04308e-10 0.0058001601)
(0.022811599 -1.04308e-10 0.0052002999)
(0.022338601 -1.04308e-10 -0.0060998001)
(0.021914899 -1.04308e-10 -0.0067997999)
(0.0210308 -1.04308e-10 0.0079001496)
(0.021382 -1.04308e-10 0.0074996101)
(0.0191564 -1.04308e-10 0.0095996)
(0.019481899 -1.04308e-10 0.0094002802)
(0.015768901 -1.04308e-10 0.0114001)
(0.016384101 -1.04308e-10 0.0111999)
(0.0132755 -1.04308e-10 0.0118999)
(0.0137885 -1.04308e-10 0.0118999)
(0.0097765401 -1.04308e-10 0.0117997)
(0.0102115 -1.04308e-10 0.0118999)
(0.0073341099 -1.04308e-10 0.0110997)
(0.0076159099 -1.04308e-10 0.0111999)
(0.0061853901 -1.04308e-10 0.0104999)
(0.0067933998 -1.04308e-10 0.0108003)
(0.0040978598 -1.04308e-10 0.0089997398)
(0.0045181201 -1.04308e-10 0.0094002802)
(0.0023674599 -1.04308e-10 0.0072001601)
(0.0026180199 -1.04308e-10 0.0074996101)
(0.00060722901 -1.04308e-10 0.00380031)
(0.00082951499 -1.04308e-10 0.0044001699)
(6.7982801e-05 -1.04308e-10 0.0012998)
(0.00013402999 -1.04308e-10 0.0018005)
(-7.3479498e-19 -1.04308e-10 -9.9755802e-08)
(3.3554599e-05 -1.04308e-10 0.00090019999)
(0.00015278001 -1.04308e-10 -0.0018998)
(1.70078e-05 -1.04308e-10 -0.00059990003)
(0.00135178 -1.04308e-10 -0.0054998999)
(0.00118837 -1.04308e-10 -0.0052005001)
(0.00082396599 -1.04308e-10 -0.0044002999)
(0.000533126 -1.04308e-10 -0.0035001)
(0.00042278599 -1.04308e-10 -0.0031997)
(0.000300866 -1.04308e-10 -0.0026999)
(0.00208513 -1.04308e-10 0.0067996099)
(0.0016077 -1.04308e-10 -0.0059996)
(0.0020002299 -1.04308e-10 -0.0066005001)
(0.00208513 -1.04308e-10 -0.0067997999)
(0.0027619901 -1.04308e-10 -0.0077001001)
(0.0032033799 -1.04308e-10 -0.0081997998)
(3.3554599e-05 0.0008867 0.0001001)
(3.3554599e-05 0.0008942 0.0001001)
(0.00013402999 0.0017835 0.0001001)
(0.0036284199 -1.04308e-10 -0.0086003002)
(0.00383793 -1.04308e-10 -0.0087996004)
(0.0045897001 -1.04308e-10 -0.0094005)
(0.00524016 -1.04308e-10 -0.0099002002)
(0.00524016 -1.04308e-10 0.0099000102)
(0.0060000001 -1.04308e-10 0.0103997)
(0.00563495 -1.04308e-10 -0.0101996)
(0.0060000001 -1.04308e-10 -0.0103999)
(0.0067523099 -1.04308e-10 -0.0108004)
(0.0076159099 -1.04308e-10 -0.0112)
(0.0079291305 -1.04308e-10 -0.0113002)
(0.0084629403 -1.04308e-10 -0.0115004)
(0.0091520799 -1.04308e-10 -0.0116998)
(0.0093297502 -1.04308e-10 -0.0116998)
(0.0102115 -1.04308e-10 -0.0119)
(0.0104073 -1.04308e-10 -0.0119)
(0.0111032 -1.04308e-10 -0.0120002)
(0.0116805 -1.04308e-10 -0.0120002)
(0.012 -1.04308e-10 -0.0120002)
(0.012 -1.04308e-10 0.012)
(0.0128968 -1.04308e-10 0.012)
(0.0128968 -1.04308e-10 -0.0120002)
(0.0129574 -1.04308e-10 -0.0120002)
(0.0137885 -1.04308e-10 -0.0119)
(0.0146702 -1.04308e-10 0.0116996)
(0.0155371 -1.04308e-10 0.0115003)
(0.0142235 -1.04308e-10 -0.0117999)
(0.0146702 -1.04308e-10 -0.0116998)
(0.0154643 -1.04308e-10 -0.0115004)
(0.016384101 -1.04308e-10 -0.0112)
(0.0166659 -1.04308e-10 -0.0110999)
(0.0172066 -1.04308e-10 -0.0108004)
(0.017814601 -1.04308e-10 -0.0105)
(0.017999999 -1.04308e-10 -0.0103999)
(0.0187598 -1.04308e-10 -0.0099002002)
(0.018897399 -1.04308e-10 -0.0098000001)
(0.019481899 -1.04308e-10 -0.0094005)
(0.0187598 -1.04308e-10 0.0099000102)
(0.019902101 -1.04308e-10 -0.0089999)
(0.0201621 -1.04308e-10 -0.0087996004)
(0.0208173 -1.04308e-10 -0.0080995997)
(0.021382 -1.04308e-10 -0.0074998001)
(0.0216325 -1.04308e-10 -0.0072003002)
(0.022392301 -1.04308e-10 -0.0059996)
(0.022927601 -1.04308e-10 -0.0050002001)
(0.023728799 -1.04308e-10 -0.0024997001)
(0.0234669 -1.04308e-10 -0.0035001)
(0.024 -1.04308e-10 -9.9755802e-08)
(0.00027115899 -1.04308e-10 0.00250045)
(0.000533126 -1.04308e-10 0.0034999)
(0.00107238 -1.04308e-10 0.0050000302)
(0.0016077 -1.04308e-10 0.0060004299)
(0.00166135 -1.04308e-10 0.0060996199)
(0.0031827099 -1.04308e-10 0.0081004295)
(0.00383793 -1.04308e-10 0.00880042)
(0.0051025501 -1.04308e-10 0.0097998697)
(0.0085356999 -1.04308e-10 0.0115003)
(0.0093297502 -1.04308e-10 0.0116996)
(0.0110426 -1.04308e-10 0.012)
(0.0239664 0.0008942 -0.0001002)
(0.023866 0.0017835 -0.0001002)
(0.0239664 0.0008867 -0.0001002)
(0.0111032 -1.04308e-10 0.012)
(0.0145366 -1.04308e-10 0.0116996)
(0.016958499 -1.04308e-10 0.0109004)
(0.0172066 -1.04308e-10 0.0108003)
(0.018092001 -1.04308e-10 0.0102996)
(0.0201397 -1.04308e-10 0.00880042)
(0.020796601 -1.04308e-10 0.0081996098)
(0.021819601 -1.04308e-10 0.0068997499)
(0.022392301 -1.04308e-10 0.0060004299)
(0.023055701 -1.04308e-10 0.00469962)
(0.0234669 0.0002643 0.0034999)
(0.0239617 -1.04308e-10 0.0010003)
(0.0239958 -1.04308e-10 0.00030029999)
)

// edges

130
(
(2 3)
(4 5)
(0 6)
(7 8)
(9 10)
(11 12)
(13 14)
(15 16)
(17 18)
(19 20)
(21 22)
(23 24)
(25 26)
(27 28)
(29 30)
(31 32)
(33 34)
(35 36)
(37 38)
(39 40)
(40 41)
(41 42)
(42 43)
(43 44)
(44 37)
(45 29)
(46 39)
(47 46)
(48 47)
(49 48)
(50 49)
(51 52)
(53 52)
(54 50)
(55 54)
(56 55)
(57 56)
(58 59)
(60 57)
(61 60)
(62 61)
(63 62)
(64 63)
(65 64)
(66 65)
(67 66)
(68 67)
(69 68)
(70 69)
(71 70)
(72 71)
(73 74)
(75 72)
(76 75)
(77 76)
(78 79)
(80 77)
(81 80)
(82 81)
(83 82)
(84 83)
(85 84)
(86 85)
(87 86)
(88 87)
(89 88)
(90 89)
(91 15)
(92 90)
(93 92)
(94 93)
(95 94)
(38 35)
(12 96)
(96 95)
(97 11)
(98 97)
(8 98)
(99 100)
(3 99)
(101 2)
(36 33)
(34 102)
(102 103)
(103 31)
(32 104)
(104 105)
(105 106)
(106 45)
(30 107)
(107 108)
(108 27)
(28 109)
(109 58)
(59 25)
(26 23)
(24 110)
(110 111)
(111 21)
(22 112)
(113 114)
(113 115)
(112 116)
(116 73)
(74 19)
(20 117)
(117 78)
(79 17)
(18 118)
(118 119)
(119 120)
(120 91)
(16 121)
(121 122)
(122 13)
(14 123)
(123 124)
(124 9)
(10 125)
(125 1)
(0 126)
(1 0)
(6 4)
(5 127)
(127 128)
(128 101)
(100 7)
(51 53)
(114 115)
(1 126)
)

// concaveStart mixedStart nonFeatureStart
1 1 2
// internalStart flatStart openStart multipleStart
127 130 130 130
// normals

254
(
(0.99139317 0 -0.1309182)
(0 -1 0)
(0.98336521 0 0.1816394)
(0 -1 0)
(0.96724158 0 0.25385767)
(0 -1 0)
(0.93767084 0 -0.34752467)
(0 -1 0)
(0.88571795 0 0.46422377)
(0 -1 0)
(0.85101423 0.10216532 -0.51510875)
(0 -1 0)
(0.7518992 0 0.65927809)
(-0 -1 0)
(0.52221985 0 0.8528109)
(0 -1 0)
(0.30745321 0.11340104 0.94478184)
(0 -1 0)
(-0 0.11228866 0.99367563)
(-0 -1 0)
(-0.22313762 0.10945752 0.96862204)
(0 -1 0)
(-0.33290088 0.11237598 0.93624176)
(0 -1 0)
(-0.44295602 0 0.89654334)
(0 -1 0)
(-0.68991938 0 0.72388621)
(0 -1 -0)
(-0.76693707 0 0.64172231)
(0 -1 0)
(-0.93768989 0 0.34747328)
(0 -1 0)
(-0.99141183 0 0.13077686)
(0 -1 0)
(-0.99930618 0 0.037244616)
(0 -1 0)
(-0.97130093 -0.21513317 -0.10145063)
(0 -1 0)
(-0.87777102 0 -0.47908041)
(0 -1 0)
(-0.91007635 -0 -0.41444064)
(0 -1 0)
(-0.95144505 0.016115879 -0.30739648)
(0 -1 0)
(-0.93868088 -0 -0.3447872)
(0 -1 0)
(-0.97151249 -0 -0.23698835)
(0 -1 0)
(-0.98329975 -0 -0.18199342)
(0 -1 0)
(-0.81600435 0.057637013 0.57516508)
(0 -1 0)
(-0.88982452 -0.023036377 -0.45572102)
(0 -1 0)
(-0.83720329 0 -0.54689181)
(0 -1 0)
(-0.91723529 0.077497294 -0.39073469)
(0 -1 0)
(-0.79926695 0.0094617145 -0.60090167)
(0 -1 0)
(-0.74508919 0.10810844 -0.65814486)
(0 -1 0)
(-0.94824323 0 0.31754491)
(-0 0 1)
(-0.99366234 0.11226652 0.0056021783)
(-0.68093587 0.1187056 -0.7226585)
(0 -1 0)
(-0.68923219 0 -0.72454054)
(0 -1 0)
(-0.62310303 -0.063616808 -0.77954828)
(0 -1 0)
(-0.60921004 0 -0.7930089)
(0 -1 0)
(-0.54945933 0 0.83552047)
(0 -1 -0)
(-0.60426334 0 -0.79678467)
(0 -1 0)
(-0.48103891 0 -0.87669924)
(0 -1 0)
(-0.46978488 0.023890391 -0.8824576)
(0 -1 0)
(-0.41747277 0.10818446 -0.90222647)
(0 -1 0)
(-0.30272372 0.11346921 -0.94629968)
(0 -1 0)
(-0.3490742 0.10872819 -0.93076602)
(0 -1 0)
(-0.27621268 0.111513 -0.95460537)
(0 -1 0)
(0 0 -1)
(0 -1 0)
(-0.22141302 0 -0.97518012)
(0 -1 0)
(0 0.11217839 -0.99368808)
(0 -1 0)
(-0.14164796 0.11023576 -0.9837601)
(0 -1 0)
(0 0.11135858 -0.99378029)
(0 -1 0)
(0 0 -1)
(0 -1 -0)
(-0 0.1112492 0.99379254)
(0 -1 0)
(0 0 -1)
(0 -1 0)
(0 0.11135858 -0.99378029)
(0 -1 0)
(0.11895159 0.11138193 -0.98663295)
(0 -1 0)
(0.22261413 0.11322747 0.96830909)
(-0 -1 0)
(0.22290989 0.10935587 -0.96868595)
(0 -1 0)
(0.21866396 0 -0.97580022)
(0 -1 0)
(0.24250444 0.092213353 -0.96575789)
(0 -1 0)
(0.30845772 0.11325011 -0.94447247)
(0 -1 0)
(0.3326084 0.11227707 -0.93635758)
(0 -1 0)
(0.48454414 0 -0.87476681)
(0 -1 0)
(0.44296121 0 -0.89654078)
(0 -1 0)
(0.47509142 0 -0.87993644)
(0 -1 0)
(0.54948694 0 -0.83550231)
(0 -1 0)
(0.58866316 0 -0.80837843)
(0 -1 0)
(0.56427895 0 -0.8255842)
(0 -1 0)
(0.60293223 -0.053626771 0.795988)
(0 -1 0)
(0.69002365 0 -0.72378683)
(0 -1 0)
(0.61028519 0 -0.79218179)
(0 -1 0)
(0.7298596 0.024766855 -0.68314828)
(0 -1 0)
(0.72808933 0 -0.68548226)
(0 -1 0)
(-0.99250832 0.11889145 -0.02814334)
(-0 -1 0)
(0.81591631 0.057377493 -0.57531592)
(0 -1 0)
(0.76706562 0 -0.64156865)
(0 -1 0)
(0.8814014 0 -0.47236804)
(0 -1 0)
(0.8813422 0.019744323 -0.47206576)
(0 -1 0)
(0.92690303 0 -0.37530091)
(0 -1 0)
(0.96158464 -0.10946795 -0.25173746)
(0 -1 0)
(0.98132813 0 -0.1923411)
(0 -1 0)
(0.97901376 -0.19725318 -0.051217509)
(0 -1 0)
(-0.99630905 0 0.085838657)
(0 -1 -0)
(-0.98134447 0 0.1922577)
(0 -1 0)
(-0.96159897 -0.10862929 0.25204584)
(0 -1 -0)
(-0.97089779 0 0.23949421)
(0 -1 0)
(-0.92691218 0 0.37527831)
(0 -1 -0)
(-0.88152684 0.019992341 0.47171043)
(0 -1 0)
(-0.87958125 0 0.4757487)
(0 -1 0)
(-0.85105751 0.10115033 0.51523754)
(0 -1 -0)
(-0.72867628 0 0.68485829)
(0 -1 -0)
(-0.72984497 0.02473098 0.68316521)
(0 -1 0)
(-0.60850899 0 0.79354698)
(0 -1 0)
(-0.56441098 0 0.82549394)
(0 -1 0)
(-0.58840432 0 0.80856685)
(0 -1 0)
(-0.47547756 0 0.87972785)
(0 -1 0)
(-0.48441258 0 0.87483967)
(0 -1 -0)
(-0.30845685 0.11336232 0.94445929)
(0 -1 0)
(-0.24240076 0.092348385 0.96577101)
(0 -1 -0)
(-0.21862186 0 0.97580965)
(0 -1 0)
(-0.11883362 0.111493 0.98663462)
(0 -1 -0)
(0.99367169 0.11218367 -0.005603609)
(0 0 -1)
(0.94801777 0 -0.3182174)
(-0 0.1112492 0.99379254)
(-0 -1 -0)
(0 0 1)
(0 -1 0)
(0.2540661 0.10759876 0.96118309)
(0 -1 0)
(0.25710725 0.10851383 0.96027111)
(0 -1 0)
(0 0 1)
(0 -1 0)
(0.39451822 0.10672138 0.91266967)
(0 -1 0)
(0.45974377 0.10583215 0.88172287)
(-0 -1 0)
(0.37415774 0 0.92736508)
(0 -1 0)
(0.49224831 0 0.87045482)
(0 -1 0)
(0.51283053 -0.049716351 0.85704909)
(-0 -1 0)
(0.67381572 -0 0.73889944)
(-0 -1 0)
(0.67472237 -0.022990407 0.73771347)
(0 -1 0)
(0.78378794 0.099664632 0.61297914)
(0 -1 0)
(0.8078777 -0 0.58935017)
(0 -1 0)
(0.84231534 0.052738449 0.53639866)
(0 -1 0)
(0.88583992 -0 0.46399099)
(-0 -1 0)
(0.89886224 -0 0.43823131)
(0 -1 0)
(0.94539522 -0.035100834 0.32403058)
(-0 -1 0)
(0 0 1)
(0.95898356 0.08055338 0.27177506)
(0 -1 0)
(0.98308489 -0 0.18315047)
(-0 -1 0)
(0.99292419 -0 0.11874993)
(0 -1 0)
(0.99881214 0.0026352057 0.048655623)
(-0 -1 0)
(0.95409275 0.29921408 0.013340365)
(0 -1 0)
(0.97089839 0 -0.2394918)
(0 -1 0)
(-0.99374768 0.11133719 0.0083419467)
(0.99375662 0.11125498 -0.0083734288)
(0.94984451 0 0.31272257)
)

// normal volume types

254
(
0
0
0
0
0
0
0
0
0
0
0
0
0
0
0
0
0
0
0
0
0
0
0
0
0
0
0
0
0
0
0
0
0
0
0
0
0
0
0
0
0
0
0
0
0
0
0
0
0
0
0
0
0
0
0
0
0
0
0
0
0
0
0
0
0
0
0
0
0
0
0
0
0
0
0
0
0
0
0
0
0
0
0
0
0
0
0
0
0
0
0
0
0
0
0
0
0
0
0
0
0
0
0
0
0
0
0
0
0
0
0
0
0
0
0
0
0
0
0
0
0
0
0
0
0
0
0
0
0
0
0
0
0
0
0
0
0
0
0
0
0
0
0
0
0
0
0
0
0
0
0
0
0
0
0
0
0
0
0
0
0
0
0
0
0
0
0
0
0
0
0
0
0
0
0
0
0
0
0
0
0
0
0
0
0
0
0
0
0
0
0
0
0
0
0
0
0
0
0
0
0
0
0
0
0
0
0
0
0
0
0
0
0
0
0
0
0
0
0
0
0
0
0
0
0
0
0
0
0
0
0
0
0
0
0
0
0
0
0
0
0
0
0
0
0
0
0
0
0
0
0
0
0
0
)

// normalDirections

130
(
2(1 -1)
2(1 -1)
2(1 -1)
2(1 -1)
2(1 -1)
2(1 -1)
2(1 -1)
2(1 -1)
2(1 -1)
2(1 -1)
2(1 -1)
2(1 -1)
2(1 -1)
2(1 -1)
2(1 -1)
2(1 -1)
2(1 -1)
2(1 -1)
2(1 -1)
2(1 -1)
2(1 -1)
2(1 -1)
2(1 -1)
2(1 -1)
2(1 -1)
2(1 -1)
2(1 -1)
2(1 -1)
2(1 -1)
2(1 -1)
2(1 -1)
2(1 -1)
2(1 -1)
2(1 -1)
2(1 -1)
2(1 -1)
2(1 -1)
2(1 -1)
2(1 -1)
2(1 -1)
2(1 -1)
2(1 -1)
2(1 -1)
2(1 -1)
2(1 -1)
2(1 -1)
2(1 -1)
2(1 -1)
2(1 -1)
2(1 -1)
2(1 -1)
2(1 -1)
2(1 -1)
2(1 -1)
2(1 -1)
2(1 -1)
2(1 -1)
2(1 -1)
2(1 -1)
2(1 -1)
2(1 -1)
2(1 -1)
2(1 -1)
2(1 -1)
2(1 -1)
2(1 -1)
2(1 -1)
2(1 -1)
2(1 -1)
2(1 -1)
2(1 -1)
2(1 -1)
2(1 -1)
2(1 -1)
2(1 -1)
2(1 -1)
2(1 -1)
2(1 -1)
2(1 -1)
2(1 -1)
2(1 -1)
2(1 -1)
2(1 -1)
2(1 -1)
2(1 -1)
2(1 -1)
2(1 -1)
2(1 -1)
2(1 -1)
2(1 -1)
2(1 -1)
2(1 -1)
2(1 -1)
2(1 -1)
2(1 -1)
2(1 -1)
2(1 -1)
2(1 -1)
2(1 -1)
2(1 -1)
2(1 -1)
2(1 -1)
2(1 -1)
2(1 -1)
2(1 -1)
2(1 -1)
2(1 -1)
2(1 -1)
2(1 -1)
2(1 -1)
2(1 -1)
2(1 -1)
2(1 -1)
2(1 -1)
2(1 -1)
2(1 -1)
2(1 -1)
2(1 -1)
2(1 -1)
2(1 -1)
2(1 -1)
2(1 -1)
2(1 -1)
2(1 -1)
2(1 -1)
2(1 -1)
2(1 -1)
2(1 -1)
2(1 -1)
2(1 -1)
)

// edgeNormals

130
(
2(0 1)
2(2 3)
2(4 5)
2(6 7)
2(8 9)
2(10 11)
2(12 13)
2(14 15)
2(16 17)
2(18 19)
2(20 21)
2(22 23)
2(24 25)
2(26 27)
2(28 29)
2(30 31)
2(32 33)
2(34 35)
2(36 37)
2(38 39)
2(40 41)
2(42 43)
2(44 45)
2(46 47)
2(48 49)
2(50 51)
2(52 53)
2(54 55)
2(56 57)
2(58 59)
2(60 61)
2(62 63)
2(63 64)
2(65 66)
2(67 68)
2(69 70)
2(71 72)
2(73 74)
2(75 76)
2(77 78)
2(79 80)
2(81 82)
2(83 84)
2(85 86)
2(87 88)
2(89 90)
2(91 92)
2(93 94)
2(95 96)
2(97 98)
2(99 100)
2(101 102)
2(103 104)
2(105 106)
2(107 108)
2(109 110)
2(111 112)
2(113 114)
2(115 116)
2(117 118)
2(119 120)
2(121 122)
2(123 124)
2(125 126)
2(127 128)
2(129 130)
2(131 132)
2(133 134)
2(135 136)
2(137 138)
2(139 140)
2(141 142)
2(143 144)
2(145 146)
2(147 148)
2(149 150)
2(151 152)
2(153 154)
2(155 156)
2(157 158)
2(159 160)
2(161 162)
2(163 164)
2(165 166)
2(167 168)
2(169 170)
2(171 172)
2(173 174)
2(175 176)
2(177 178)
2(179 180)
2(181 182)
2(183 184)
2(185 186)
2(187 188)
2(189 190)
2(191 192)
2(193 194)
2(195 196)
2(197 198)
2(199 200)
2(200 201)
2(202 203)
2(204 205)
2(206 207)
2(208 209)
2(210 211)
2(212 213)
2(214 215)
2(216 217)
2(218 219)
2(220 221)
2(222 223)
2(224 225)
2(226 227)
2(228 229)
2(230 231)
2(232 233)
2(234 235)
2(236 237)
2(238 239)
2(238 240)
2(241 242)
2(243 244)
2(245 246)
2(247 248)
2(249 250)
2(63 251)
2(252 200)
2(253 238)
)

// featurePointNormals

2
(
4(4 5 238 239)
4(236 237 238 253)
)

// featurePointEdges

2
(
3(120 121 2)
3(129 121 119)
)

// regionEdges
0()


// ************************************************************************* //
