/*--------------------------------*- C++ -*----------------------------------*\
| =========                 |                                                 |
| \\      /  F ield         | OpenFOAM: The Open Source CFD Toolbox           |
|  \\    /   O peration     | Version:  6                                     |
|   \\  /    A nd           | Web:      www.OpenFOAM.com                      |
|    \\/     M anipulation  |                                                 |
\*---------------------------------------------------------------------------*/
FoamFile
{
    version     2.0;
    format      ascii;
    class       dictionary;
    object      fvSchemes;
}
// * * * * * * * * * * * * * * * * * * * * * * * * * * * * * * * * * * * * * //

ddtSchemes
{
    //default         Euler;
    default 		backward;
}

gradSchemes
{

    default         Gauss linear;
    grad(p)         Gauss linear;
    grad(U)         Gauss linear;

    //default          cellMDLimited Gauss linear 1;
}

divSchemes
{
    default         none;

    //div(phi,U)      Gauss linearUpwind grad(U);
    //div(phi,U)      Gauss linear;
    div(phi,U)      Gauss limitedLinearV 1;
    //div(phi,U)      Gauss upwind;

    //div(phi,k) Gauss linearUpwind grad(k);
    //div(phi,k) Gauss limitedLinear 1;

    div((nuEff*dev2(T(grad(U))))) Gauss linear;
}

laplacianSchemes
{
      default         Gauss linear limited 1;
}

interpolationSchemes
{
    default         linear;
}

snGradSchemes
{
    default         limited 1;
}

wallDist
{
    method	    meshWave;
}

// ************************************************************************* //
