/*--------------------------------*- C++ -*----------------------------------*\
| ========= | | \\ / F ield | OpenFOAM: The Open Source CFD Toolbox |
|  \\ / O peration | Version: v2106 |
|   \\ / A nd | Website: www.openfoam.com |
|    \\/ M anipulation | |
\*---------------------------------------------------------------------------*/
 FoamFile {
    version 2.0;
    format ascii;
    class volScalarField;
    object k;
}
// * * * * * * * * * * * * * * * * * * * * * * * * * * * * * * * * * * * * * // 

dimensions [0 2 -2 0 0 0 0]; 

internalField uniform 0; 

boundaryField
{
    minx
    {
        type cyclic;
    }
    maxx
    {
        type cyclic;
    }
    miny
    {
        type zeroGradient;
    }
    semi_sphere
    {
        type zeroGradient;
    }
    maxy
    {
        type symmetry;
    }
    minz
    {
        type symmetry;
    }
    maxz
    {
        type symmetry;
    }
}
// ************************************************************************* //
